FoamFile
{
    version     2.0;
    format      ascii;
    arch        "LSB;label=32;scalar=64";
    class       polyBoundaryMesh;
    location    "constant/polyMesh";
    object      boundary;
}
4
(
airfoil
{
type       wall;
nFaces     99;
startFace  36927;
}
empty
{
type       empty;
nFaces     37026;
startFace  37026;
}
inlet
{
type       patch;
nFaces     51;
startFace  74052;
}
outlet
{
type       patch;
nFaces     48;
startFace  74103;
}
)
