FoamFile
{
    version     2.0;
    format      ascii;
    arch        "LSB;label=32;scalar=64";
    class       polyBoundaryMesh;
    location    "constant/polyMesh";
    object      boundary;
}
3
(
surrounding
{
type       wall;
nFaces     48;
startFace  11;
}
leftWall
{
type       wall;
nFaces     1;
startFace  59;
}
rightWall
{
type       wall;
nFaces     1;
startFace  60;
}
)
