FoamFile
{
    version     2.0;
    format      ascii;
    arch        "LSB;label=32;scalar=64";
    class       polyBoundaryMesh;
    location    "constant/polyMesh";
    object      boundary;
}
2
(
hotFace
{
type       patch;
nFaces     600;
startFace  46397;
}
otherFace
{
type       patch;
nFaces     15546;
startFace  46997;
}
)
