FoamFile
{
    version     2.0;
    format      ascii;
    arch        "LSB;label=32;scalar=64";
    class       polyBoundaryMesh;
    location    "constant/polyMesh";
    object      boundary;
}
72
(
frontAndBack
{
type       patch;
nFaces     360;
startFace  1058057;
}
inlet
{
type       patch;
nFaces     72;
startFace  1058417;
}
outlet
{
type       patch;
nFaces     72;
startFace  1058489;
}
lowerWall
{
type       wall;
nFaces     5352;
startFace  1058561;
}
upperWall
{
type       patch;
nFaces     160;
startFace  1063913;
}
motorBike_frt-fairing:001%1
{
type       wall;
nFaces     5262;
startFace  1064073;
}
motorBike_windshield:002%2
{
type       wall;
nFaces     50;
startFace  1069335;
}
motorBike_rr-wh-rim:005%5
{
type       wall;
nFaces     121;
startFace  1069385;
}
motorBike_rr-wh-rim:010%10
{
type       wall;
nFaces     354;
startFace  1069506;
}
motorBike_fr-wh-rim:011%11
{
type       wall;
nFaces     502;
startFace  1069860;
}
motorBike_fr-wh-brake-disk:012%12
{
type       wall;
nFaces     45;
startFace  1070362;
}
motorBike_frame:016-shadow%13
{
type       wall;
nFaces     101;
startFace  1070407;
}
motorBike_rear-susp:014%14
{
type       wall;
nFaces     819;
startFace  1070508;
}
motorBike_rear-susp:014-shadow%15
{
type       wall;
nFaces     448;
startFace  1071327;
}
motorBike_frame:016%16
{
type       wall;
nFaces     69;
startFace  1071775;
}
motorBike_rr-wh-rim:005-shadow%17
{
type       wall;
nFaces     68;
startFace  1071844;
}
motorBike_rr-wh-chain-hub:022%22
{
type       wall;
nFaces     125;
startFace  1071912;
}
motorBike_rearseat%24
{
type       wall;
nFaces     421;
startFace  1072037;
}
motorBike_frt-fairing%25
{
type       wall;
nFaces     619;
startFace  1072458;
}
motorBike_windshield%26
{
type       wall;
nFaces     386;
startFace  1073077;
}
motorBike_headlights%27
{
type       wall;
nFaces     157;
startFace  1073463;
}
motorBike_driversseat%28
{
type       wall;
nFaces     350;
startFace  1073620;
}
motorBike_rear-body%29
{
type       wall;
nFaces     2055;
startFace  1073970;
}
motorBike_fuel-tank%30
{
type       wall;
nFaces     876;
startFace  1076025;
}
motorBike_exhaust%31
{
type       wall;
nFaces     2345;
startFace  1076901;
}
motorBike_rr-wh-rim%32
{
type       wall;
nFaces     1375;
startFace  1079246;
}
motorBike_fr-mud-guard%33
{
type       wall;
nFaces     613;
startFace  1080621;
}
motorBike_fr-wh-rim%34
{
type       wall;
nFaces     574;
startFace  1081234;
}
motorBike_fr-wh-brake-disk%35
{
type       wall;
nFaces     432;
startFace  1081808;
}
motorBike_fr-brake-caliper%36
{
type       wall;
nFaces     159;
startFace  1082240;
}
motorBike_fr-wh-tyre%37
{
type       wall;
nFaces     1110;
startFace  1082399;
}
motorBike_hbars%38
{
type       wall;
nFaces     526;
startFace  1083509;
}
motorBike_fr-forks%39
{
type       wall;
nFaces     1093;
startFace  1084035;
}
motorBike_chain%40
{
type       wall;
nFaces     454;
startFace  1085128;
}
motorBike_rr-wh-tyre%41
{
type       wall;
nFaces     1847;
startFace  1085582;
}
motorBike_square-dial%42
{
type       wall;
nFaces     6;
startFace  1087429;
}
motorBike_round-dial%43
{
type       wall;
nFaces     15;
startFace  1087435;
}
motorBike_dial-holder%44
{
type       wall;
nFaces     89;
startFace  1087450;
}
motorBike_rear-susp%45
{
type       wall;
nFaces     1730;
startFace  1087539;
}
motorBike_rear-brake-lights%46
{
type       wall;
nFaces     54;
startFace  1089269;
}
motorBike_rear-light-bracket%47
{
type       wall;
nFaces     158;
startFace  1089323;
}
motorBike_frame%48
{
type       wall;
nFaces     2011;
startFace  1089481;
}
motorBike_rear-mud-guard%49
{
type       wall;
nFaces     634;
startFace  1091492;
}
motorBike_rear-susp-spring-damp%50
{
type       wall;
nFaces     92;
startFace  1092126;
}
motorBike_fairing-inner-plate%51
{
type       wall;
nFaces     440;
startFace  1092218;
}
motorBike_clutch-housing%52
{
type       wall;
nFaces     925;
startFace  1092658;
}
motorBike_radiator%53
{
type       wall;
nFaces     48;
startFace  1093583;
}
motorBike_water-pipe%54
{
type       wall;
nFaces     101;
startFace  1093631;
}
motorBike_water-pump%55
{
type       wall;
nFaces     71;
startFace  1093732;
}
motorBike_engine%56
{
type       wall;
nFaces     2297;
startFace  1093803;
}
motorBike_rear-shock-link%57
{
type       wall;
nFaces     29;
startFace  1096100;
}
motorBike_rear-brake-fluid-pot-bracket%58
{
type       wall;
nFaces     45;
startFace  1096129;
}
motorBike_rear-brake-fluid-pot%59
{
type       wall;
nFaces     52;
startFace  1096174;
}
motorBike_footpeg%60
{
type       wall;
nFaces     90;
startFace  1096226;
}
motorBike_rr-wh-chain-hub%61
{
type       wall;
nFaces     121;
startFace  1096316;
}
motorBike_rear-brake-caliper%62
{
type       wall;
nFaces     146;
startFace  1096437;
}
motorBike_rider-helmet%65
{
type       wall;
nFaces     763;
startFace  1096583;
}
motorBike_rider-visor%66
{
type       wall;
nFaces     165;
startFace  1097346;
}
motorBike_rider-boots%67
{
type       wall;
nFaces     1009;
startFace  1097511;
}
motorBike_rider-gloves%68
{
type       wall;
nFaces     307;
startFace  1098520;
}
motorBike_rider-body%69
{
type       wall;
nFaces     4598;
startFace  1098827;
}
motorBike_frame:0%70
{
type       wall;
nFaces     37;
startFace  1103425;
}
motorBike_frt-fairing:001-shadow%74
{
type       wall;
nFaces     3349;
startFace  1103462;
}
motorBike_windshield-shadow%75
{
type       wall;
nFaces     233;
startFace  1106811;
}
motorBike_fr-mud-guard-shadow%81
{
type       wall;
nFaces     366;
startFace  1107044;
}
motorBike_fr-wh-brake-disk-shadow%83
{
type       wall;
nFaces     200;
startFace  1107410;
}
motorBike_rear-mud-guard-shadow%84
{
type       wall;
nFaces     432;
startFace  1107610;
}
motorBike_rear-susp-spring-damp-shadow%85
{
type       wall;
nFaces     49;
startFace  1108042;
}
motorBike_radiator-shadow%86
{
type       wall;
nFaces     25;
startFace  1108091;
}
motorBike_rear-shock-link-shadow%87
{
type       wall;
nFaces     7;
startFace  1108116;
}
motorBike_rear-brake-fluid-pot-bracket-shadow%88
{
type       wall;
nFaces     23;
startFace  1108123;
}
motorBike_rr-wh-chain-hub-shadow%89
{
type       wall;
nFaces     76;
startFace  1108146;
}
)
